wzlsx.m
function mpc = wzlsx

%% MATPOWER Case Format : Version 2
mpc.version = '2';

%%-----  Power Flow Data  -----%%
%% system MVA base
mpc.baseMVA = 100;

%% bus data
%	bus_i	type	Pd	Qd	Gs	Bs	area	Vm	Va	baseKV	zone	Vmax	Vmin
mpc.bus = [     
1	1	-711	-202	0	-210	1	0.97	0	800	1	1.1	0.9
2	1	-711	-202	0	-210	1	1	0	800	1	1.1	0.9
3	1	-787	-220	0	-240	1	1	0	800	1	1.1	0.9
4	1	-787	-220	0	-240	1	1	0	800	1	1.1	0.9
5	2	0	0	0	0	1	1	0	10.5	1	1.1	0.9
6	2	0	0	0	0	1	1	0	10.5	1	1.1	0.9
7	2	0	0	0	0	1	1	0	10.5	1	1.1	0.9
8	2	0	0	0	0	1	1	0	10.5	1	1.1	0.9
9	2	0	0	0	0	1	1	0	10.5	1	1.1	0.9
10	1	70	35	0	0	1	1	0	121	1	1.1	0.9
11	2	0	0	0	0	1	1	0	13.8	1	1.1	0.9
12	1	168	93	0	0	1	1	0	121	1	1.1	0.9
13	2	0	0	0	0	1	1	0	13.8	1	1.1	0.9
14	2	0	0	0	0	1	1	0	13.8	1	1.1	0.9
15	2	0	0	0	0	1	1	0	13.8	1	1.1	0.9
16	1	0	0	0	-60	1	1	0	363	1	1.1	0.9
17	1	0	0	0	0	1	1	0	1	1	1.1	0.9
18	1	0	0	0	0	1	1	0	10.5	1	1.1	0.9
19	2	0	0	0	0	1	1	0	10.5	1	1.1	0.9
20	2	0	0	0	0	1	1	0	10.5	1	1.1	0.9
21	2	0	0	0	0	1	1	0	10.5	1	1.1	0.9
22	1	0	0	0	0	1	1	0	363	1	1.1	0.9
23	2	0	0	0	0	1	1	0	13.8	1	1.1	0.9
24	2	0	0	0	0	1	1	0	13.8	1	1.1	0.9
25	2	0	0	0	0	1	1	0	13.8	1	1.1	0.9
26	2	0	0	0	0	1	1	0	13.8	1	1.1	0.9
27	2	0	0	0	0	1	1	0	13.8	1	1.1	0.9
28	2	0	0	0	0	1	1	0	13.8	1	1.1	0.9
29	1	0	0	0	0	1	1	0	121	1	1.1	0.9
30	2	22	10	0	0	1	1	0	10.5	1	1.1	0.9
31	2	22	10	0	0	1	1	0	10.5	1	1.1	0.9
32	1	0	0	0	0	1	1	0	121	1	1.1	0.9
33	2	60	29	0	0	1	1	0	20	1	1.1	0.9
34	2	60	29	0	0	1	1	0	20	1	1.1	0.9
35	1	0	0	0	0	1	1	0	363	1	1.1	0.9
36	2	0	0	0	0	1	1	0	10.5	1	1.1	0.9
37	2	0	0	0	0	1	1	0	10.5	1	1.1	0.9
38	1	0	0	0	0	1	1	0	121	1	1.1	0.9
39	2	28	14	0	0	1	1	0	20	1	1.1	0.9
40	2	28	14	0	0	1	1	0	20	1	1.1	0.9
41	1	0	0	0	0	1	1	0	363	1	1.1	0.9
42	2	28	14	0	0	1	1	0	20	1	1.1	0.9
43	2	28	14	0	0	1	1	0	20	1	1.1	0.9
44	1	0	0	0	0	1	1	0	363	1	1.1	0.9
45	2	25	12	0	0	1	1.02	0	18	1	1.1	0.9
46	2	25	12	0	0	1	1.02	0	18	1	1.1	0.9
47	2	25	12	0	0	1	1.02	0	20	1	1.1	0.9
48	2	25	12	0	0	1	1.02	0	20	1	1.1	0.9
49	1	0	0	0	0	1	1	0	363	1	1.1	0.9
50	2	17	8	0	0	1	1	0	20	1	1.1	0.9
51	2	17	8	0	0	1	1	0	20	1	1.1	0.9
52	1	0	0	0	0	1	1	0	363	1	1.1	0.9
53	2	44	21	0	0	1	1	0	22	1	1.1	0.9
54	2	44	21	0	0	1	1	0	22	1	1.1	0.9
55	1	0	0	0	0	1	1	0	800	1	1.1	0.9
56	1	0	0	0	-180	1	1	0	800	1	1.1	0.9
57	1	0	0	0	0	1	1	0	800	1	1.1	0.9
58	1	0	0	0	-180	1	1	0	800	1	1.1	0.9
59	1	0	0	0	0	1	1	0	800	1	1.1	0.9
60	2	30	15	0	0	1	1	0	20	1	1.1	0.9
61	2	30	15	0	0	1	1	0	20	1	1.1	0.9
62	1	0	0	0	0	1	1	0	363	1	1.1	0.9
63	2	28	14	0	0	1	1	0	20	1	1.1	0.9
64	2	28	14	0	0	1	1	0	20	1	1.1	0.9
65	1	0	0	0	0	1	1	0	363	1	1.1	0.9
66	2	25	12	0	0	1	0.98	0	20	1	1.1	0.9
67	2	25	12	0	0	1	0.98	0	20	1	1.1	0.9
68	2	25	12	0	0	1	0.98	0	20	1	1.1	0.9
69	2	25	12	0	0	1	0.98	0	20	1	1.1	0.9
70	1	0	0	0	0	1	1	0	363	1	1.1	0.9
71	3	46	22	0	0	1	1	0	22	1	1.1	0.9
72	2	46	22	0	0	1	1	0	22	1	1.1	0.9
73	1	0	0	0	0	1	1	0	800	1	1.1	0.9
74	1	0	0	0	0	1	1	0	800	1	1.1	0.9
75	1	0	0	0	0	1	1	0	800	1	1.1	0.9
76	2	46	22	0	0	1	1	0	22	1	1.1	0.9
77	1	0	0	0	0	1	1	0	800	1	1.1	0.9
78	1	0	0	0	0	1	1	0	800	1	1.1	0.9
79	1	0	0	0	0	1	1	0	800	1	1.1	0.9
80	1	0	0	0	0	1	1	0	363	1	1.1	0.9
81	2	46	22	0	0	1	1	0	22	1	1.1	0.9
82	2	30	14	0	0	1	1	0	20	1	1.1	0.9
83	2	30	14	0	0	1	1	0	20	1	1.1	0.9
84	2	28	13	0	0	1	1	0	24	1	1.1	0.9
85	2	28	13	0	0	1	1	0	24	1	1.1	0.9
86	1	0	0	0	0	1	1	0	363	1	1.1	0.9
87	2	46	22	0	0	1	1	0	20	1	1.1	0.9
88	2	46	22	0	0	1	1	0	20	1	1.1	0.9
89	1	0	0	0	0	1	1	0	363	1	1.1	0.9
90	2	42	20	0	0	1	1	0	20	1	1.1	0.9
91	2	42	20	0	0	1	1	0	20	1	1.1	0.9
92	1	0	0	0	-60	1	1	0	363	1	1.1	0.9
93	2	42	20	0	0	1	1	0	22	1	1.1	0.9
94	2	42	20	0	0	1	1	0	22	1	1.1	0.9
95	1	0	0	0	-120	1	1	0	363	1	1.1	0.9
96	2	30	15	0	0	1	1	0	20	1	1.1	0.9
97	1	0	0	0	0	1	1	0	363	1	1.1	0.9
98	2	42	20	0	0	1	1	0	22	1	1.1	0.9
99	2	42	20	0	0	1	1	0	22	1	1.1	0.9
100	1	0	0	0	0	1	1	0	363	1	1.1	0.9
101	2	28	13	0	0	1	1	0	24	1	1.1	0.9
102	2	28	13	0	0	1	1	0	24	1	1.1	0.9
103	1	0	0	0	0	1	1	0	363	1	1.1	0.9
104	2	25	12	0	0	1	1	0	20	1	1.1	0.9
105	2	25	12	0	0	1	1	0	20	1	1.1	0.9
106	1	0	0	0	0	1	1	0	363	1	1.1	0.9
107	2	30	15	0	0	1	1	0	20	1	1.1	0.9
108	1	0	0	0	0	1	1	0	363	1	1.1	0.9
109	2	25	12	0	0	1	1	0	20	1	1.1	0.9
110	2	25	12	0	0	1	1	0	20	1	1.1	0.9
111	1	0	0	0	0	1	1	0	363	1	1.1	0.9
112	2	25	12	0	0	1	1	0	20	1	1.1	0.9
113	2	25	12	0	0	1	1	0	20	1	1.1	0.9
114	1	0	0	0	0	1	1	0	363	1	1.1	0.9
115	2	16	7	0	0	1	1	0	13.8	1	1.1	0.9
116	2	16	7	0	0	1	1	0	13.8	1	1.1	0.9
117	1	0	0	0	0	1	1	0	121	1	1.1	0.9
118	2	13	6	0	0	1	1	0	10.5	1	1.1	0.9
119	2	13	6	0	0	1	1	0	10.5	1	1.1	0.9
120	1	0	0	0	0	1	1	0	121	1	1.1	0.9
121	2	46	22	0	0	1	0.98	0	22	1	1.1	0.9
122	2	46	22	0	0	1	0.98	0	22	1	1.1	0.9
123	1	0	0	0	0	1	1	0	800	1	1.1	0.9
124	1	0	0	0	0	1	1	0	800	1	1.1	0.9
125	1	0	0	0	0	1	1	0	800	1	1.1	0.9
126	2	46	22	0	0	1	1	0	22	1	1.1	0.9
127	2	46	22	0	0	1	1	0	22	1	1.1	0.9
128	1	0	0	0	0	1	1	0	800	1	1.1	0.9
129	1	0	0	0	-360	1	1	0	800	1	1.1	0.9
130	2	0	0	0	0	1	1	0	0.69	1	1.1	0.9
131	1	0	0	0	0	1	1	0	35	1	1.1	0.9
132	1	0	0	0	0	1	1	0	121	1	1.1	0.9
133	2	0	0	0	0	1	1	0	0.69	1	1.1	0.9
134	1	0	0	0	0	1	1	0	35	1	1.1	0.9
135	1	0	0	0	0	1	1	0	121	1	1.1	0.9
136	2	0	0	0	0	1	1	0	0.69	1	1.1	0.9
137	1	0	0	0	0	1	1	0	35	1	1.1	0.9
138	1	0	0	0	0	1	1	0	121	1	1.1	0.9
139	2	0	0	0	0	1	1	0	0.69	1	1.1	0.9
140	1	0	0	0	0	1	1	0	35	1	1.1	0.9
141	1	0	0	0	0	1	1	0	121	1	1.1	0.9
142	2	0	0	0	0	1	1	0	0.69	1	1.1	0.9
143	1	0	0	0	0	1	1	0	35	1	1.1	0.9
144	1	0	0	0	0	1	1	0	121	1	1.1	0.9
145	1	-9	0	0	0	1	1	0	0.4	1	1.1	0.9
146	1	0	0	0	0	1	1	0	10.5	1	1.1	0.9
147	1	-9	0	0	0	1	1	0	0.4	1	1.1	0.9
148	1	0	0	0	0	1	1	0	10.5	1	1.1	0.9
149	1	-9	0	0	0	1	1	0	0.4	1	1.1	0.9
150	1	0	0	0	0	1	1	0	10.5	1	1.1	0.9
151	1	0	0	0	0	1	1	0	121	1	1.1	0.9
152	1	0	0	0	0	1	1	0	363	1	1.1	0.9
153	1	0	0	0	0	1	1	0	363	1	1.1	0.9
154	2	3000	0	0	4578	1	0.973	0	363	1	1.1	0.9
155	2	1110	0	0	1802	1	0.982	0	363	1	1.1	0.9
156	1	0	0	0	0	1	0.98	0	800	1	1.1	0.9
157	1	0	0	0	0	1	1	0	363	1	1.1	0.9
158	1	0	0	0	360	1	1	0	66	1	1.1	0.9
159	1	0	0	0	0	1	1	0	1	1	1.1	0.9
160	1	0	0	0	0	1	1	0	1	1	1.1	0.9
161	1	0	0	0	0	1	1	0	1	1	1.1	0.9
162	1	0	0	0	0	1	0.98	0	800	1	1.1	0.9
163	1	0	0	0	0	1	1	0	363	1	1.1	0.9
164	1	0	0	0	240	1	1	0	66	1	1.1	0.9
165	1	0	0	0	0	1	1	0	1	1	1.1	0.9
166	1	0	0	0	0	1	1	0	1	1	1.1	0.9
167	1	0	0	0	0	1	0.98	0	800	1	1.1	0.9
168	1	0	0	0	0	1	1	0	363	1	1.1	0.9
169	1	0	0	0	120	1	1	0	66	1	1.1	0.9
170	1	0	0	0	0	1	1	0	1	1	1.1	0.9
171	1	0	0	0	0	1	1	0	1	1	1.1	0.9
172	1	0	0	0	0	1	0.98	0	800	1	1.1	0.9
173	1	0	0	0	0	1	1	0	363	1	1.1	0.9
174	1	0	0	0	240	1	1	0	66	1	1.1	0.9
175	1	0	0	0	0	1	1	0	1	1	1.1	0.9
176	1	0	0	0	0	1	1	0	1	1	1.1	0.9
177	1	0	0	0	0	1	0.98	0	800	1	1.1	0.9
178	1	0	0	0	0	1	1	0	363	1	1.1	0.9
179	1	0	0	0	0	1	1	0	66	1	1.1	0.9
180	1	0	0	0	0	1	1	0	1	1	1.1	0.9
181	1	0	0	0	0	1	0.99	0	800	1	1.1	0.9
182	1	0	0	0	0	1	1	0	363	1	1.1	0.9
183	1	0	0	0	0	1	1	0	66	1	1.1	0.9
184	1	0	0	0	0	1	1	0	1	1	1.1	0.9
185	1	0	0	0	0	1	1	0	1	1	1.1	0.9
186	1	0	0	0	20	1	1	0	35	1	1.1	0.9
187	1	0	0	0	20	1	1	0	35	1	1.1	0.9
188	1	0	0	0	20	1	1	0	35	1	1.1	0.9
189	1	441	213	0	0	1	1	0	121	1	1.1	0.9
190	1	0	0	0	0	1	1	0	363	1	1.1	0.9
191	1	0	0	0	0	1	1	0	1	1	1.1	0.9
192	1	0	0	0	0	1	1	0	1	1	1.1	0.9
193	1	0	0	0	0	1	1	0	1	1	1.1	0.9
194	1	713	344	0	0	1	1	0	121	1	1.1	0.9
195	1	0	0	0	0	1	1	0	363	1	1.1	0.9
196	1	0	0	0	0	1	1	0	1	1	1.1	0.9
197	1	0	0	0	60	1	1	0	35	1	1.1	0.9
198	1	0	0	0	0	1	1	0	1	1	1.1	0.9
199	1	0	0	0	60	1	1	0	35	1	1.1	0.9
200	1	0	0	0	0	1	1	0	1	1	1.1	0.9
...
];

%% generator data
%	bus	Pg	Qg	Qmax	Qmin	Vg	mBase	status	Pmax	Pmin	Pc1	Pc2	Qc1min	Qc1max	Qc2min	Qc2max	ramp_agc	ramp_10	ramp_30	ramp_q	apf
mpc.gen = [
5	45	0	27	-11	1	100	1	45	0	0	0	0	0	0	0	0	0	0	0	0
6	45	0	27	-11	1	100	1	45	0	0	0	0	0	0	0	0	0	0	0	0
7	45	0	27	-11	1	100	1	45	0	0	0	0	0	0	0	0	0	0	0	0
8	0	0	0	0	1	100	0	45	0	0	0	0	0	0	0	0	0	0	0	0
9	0	0	0	0	1	100	0	45	0	0	0	0	0	0	0	0	0	0	0	0
11	200	0	123	-50	1	100	1	200	0	0	0	0	0	0	0	0	0	0	0	0
13	0	0	0	0	1	100	0	200	0	0	0	0	0	0	0	0	0	0	0	0
14	0	0	0	0	1	100	0	200	0	0	0	0	0	0	0	0	0	0	0	0
15	200	0	123	-50	1	100	1	200	0	0	0	0	0	0	0	0	0	0	0	0
19	60	0	33	-15	1	100	1	60	0	0	0	0	0	0	0	0	0	0	0	0
20	0	0	0	0	1	100	0	60	0	0	0	0	0	0	0	0	0	0	0	0
21	0	0	0	0	1	100	0	60	0	0	0	0	0	0	0	0	0	0	0	0
23	45	0	27	-11	1	100	1	45	0	0	0	0	0	0	0	0	0	0	0	0
24	45	0	27	-11	1	100	1	45	0	0	0	0	0	0	0	0	0	0	0	0
25	0	0	0	0	1	100	0	45	0	0	0	0	0	0	0	0	0	0	0	0
26	0	0	0	0	1	100	0	45	0	0	0	0	0	0	0	0	0	0	0	0
27	0	0	0	0	1	100	0	45	0	0	0	0	0	0	0	0	0	0	0	0
28	0	0	0	0	1	100	0	45	0	0	0	0	0	0	0	0	0	0	0	0
30	110	0	82.5	-27	1	100	1	110	0	0	0	0	0	0	0	0	0	0	0	0
31	110	0	82.5	-27	1	100	1	110	0	0	0	0	0	0	0	0	0	0	0	0
33	300	0	185	-75	1	100	1	300	0	0	0	0	0	0	0	0	0	0	0	0
34	300	0	185	-75	1	100	1	300	0	0	0	0	0	0	0	0	0	0	0	0
36	60	0	37.18	0	1	100	1	60	0	0	0	0	0	0	0	0	0	0	0	0
37	60	0	37.18	0	1	100	1	60	0	0	0	0	0	0	0	0	0	0	0	0
39	300	0	185	-75	1	100	1	300	0	0	0	0	0	0	0	0	0	0	0	0
40	300	0	185	-75	1	100	1	300	0	0	0	0	0	0	0	0	0	0	0	0
42	300	0	185	-75	1	100	1	300	0	0	0	0	0	0	0	0	0	0	0	0
43	300	0	185	-75	1	100	1	300	0	0	0	0	0	0	0	0	0	0	0	0
45	300	0	185	-75	1.02	100	1	300	0	0	0	0	0	0	0	0	0	0	0	0
46	300	0	185	-75	1.02	100	1	300	0	0	0	0	0	0	0	0	0	0	0	0
47	300	0	185	-75	1.02	100	1	300	0	0	0	0	0	0	0	0	0	0	0	0
48	300	0	185	-75	1.02	100	1	300	0	0	0	0	0	0	0	0	0	0	0	0
50	200	0	123	-50	1	100	1	200	0	0	0	0	0	0	0	0	0	0	0	0
51	200	0	123	-50	1	100	1	200	0	0	0	0	0	0	0	0	0	0	0	0
53	630	0	300	-200	1	100	1	630	0	0	0	0	0	0	0	0	0	0	0	0
54	630	0	300	-200	1	100	1	630	0	0	0	0	0	0	0	0	0	0	0	0
60	350	0	216	-115	1	100	1	350	0	0	0	0	0	0	0	0	0	0	0	0
61	350	0	216	-115	1	100	1	350	0	0	0	0	0	0	0	0	0	0	0	0
63	330	0	200	-108	1	100	1	330	0	0	0	0	0	0	0	0	0	0	0	0
64	330	0	200	-108	1	100	1	330	0	0	0	0	0	0	0	0	0	0	0	0
66	300	0	185	-75	0.98	100	1	300	0	0	0	0	0	0	0	0	0	0	0	0
67	300	0	185	-75	0.98	100	1	300	0	0	0	0	0	0	0	0	0	0	0	0
68	300	0	185	-75	0.98	100	1	300	0	0	0	0	0	0	0	0	0	0	0	0
69	300	0	185	-75	0.98	100	1	300	0	0	0	0	0	0	0	0	0	0	0	0
71	660	0	319	0	1	100	1	660	0	0	0	0	0	0	0	0	0	0	0	0
72	660	0	319	0	1	100	1	660	0	0	0	0	0	0	0	0	0	0	0	0
76	660	0	319	-216	1	100	1	660	0	0	0	0	0	0	0	0	0	0	0	0
81	660	0	319	-216	1	100	1	660	0	0	0	0	0	0	0	0	0	0	0	0
82	300	0	223	-90	1	100	1	360	0	0	0	0	0	0	0	0	0	0	0	0
83	300	0	223	-90	1	100	1	360	0	0	0	0	0	0	0	0	0	0	0	0
84	330	0	204	-82	1	100	1	330	0	0	0	0	0	0	0	0	0	0	0	0
85	330	0	204	-82	1	100	1	330	0	0	0	0	0	0	0	0	0	0	0	0
87	560	0	320	-165	1	100	1	660	0	0	0	0	0	0	0	0	0	0	0	0
88	660	0	320	-165	1	100	1	660	0	0	0	0	0	0	0	0	0	0	0	0
90	600	0	290	-150	1	100	1	600	0	0	0	0	0	0	0	0	0	0	0	0
91	600	0	290	-150	1	100	1	600	0	0	0	0	0	0	0	0	0	0	0	0
93	600	0	290	-150	1	100	1	600	0	0	0	0	0	0	0	0	0	0	0	0
94	600	0	290	-150	1	100	1	600	0	0	0	0	0	0	0	0	0	0	0	0
96	350	0	216	-115	1	100	1	350	0	0	0	0	0	0	0	0	0	0	0	0
98	600	0	290	-150	1	100	1	600	0	0	0	0	0	0	0	0	0	0	0	0
99	600	0	290	-150	1	100	1	600	0	0	0	0	0	0	0	0	0	0	0	0
101	330	0	204	-108	1	100	1	330	0	0	0	0	0	0	0	0	0	0	0	0
102	330	0	204	-108	1	100	1	330	0	0	0	0	0	0	0	0	0	0	0	0
104	300	0	185	-98	1	100	1	300	0	0	0	0	0	0	0	0	0	0	0	0
105	300	0	185	-98	1	100	1	300	0	0	0	0	0	0	0	0	0	0	0	0
107	350	0	216	-115	1	100	1	350	0	0	0	0	0	0	0	0	0	0	0	0
109	250	0	185	-75	1	100	1	300	0	0	0	0	0	0	0	0	0	0	0	0
110	300	0	185	-75	1	100	1	300	0	0	0	0	0	0	0	0	0	0	0	0
112	300	0	185	-75	1	100	1	300	0	0	0	0	0	0	0	0	0	0	0	0
113	300	0	185	-75	1	100	1	300	0	0	0	0	0	0	0	0	0	0	0	0
115	135	0	83	-33	1	100	1	135	0	0	0	0	0	0	0	0	0	0	0	0
116	135	0	83	-33	1	100	1	135	0	0	0	0	0	0	0	0	0	0	0	0
118	110	0	68	-27	1	100	1	110	0	0	0	0	0	0	0	0	0	0	0	0
119	110	0	68	-27	1	100	1	110	0	0	0	0	0	0	0	0	0	0	0	0
121	660	0	319	-216	0.98	100	1	660	0	0	0	0	0	0	0	0	0	0	0	0
122	660	0	319	-216	0.98	100	1	660	0	0	0	0	0	0	0	0	0	0	0	0
126	400	0	319	-216	1	100	1	660	0	0	0	0	0	0	0	0	0	0	0	0
127	400	0	319	-216	1	100	1	660	0	0	0	0	0	0	0	0	0	0	0	0
130	70	0	200	-200	1	100	1	800	0	0	0	0	0	0	0	0	0	0	0	0
133	60	0	200	-200	1	100	1	700	0	0	0	0	0	0	0	0	0	0	0	0
136	55	0	60	-60	1	100	1	150	0	0	0	0	0	0	0	0	0	0	0	0
139	40	0	150	-150	1	100	1	450	0	0	0	0	0	0	0	0	0	0	0	0
142	55	0	60	-60	1	100	1	150	0	0	0	0	0	0	0	0	0	0	0	0
154	0	0	9999	-9999	0.973	100	1	0	0	0	0	0	0	0	0	0	0	0	0	0
155	0	0	9999	-9999	0.982	100	1	0	0	0	0	0	0	0	0	0	0	0	0	0
690	50	0	50	0	1	100	1	50	0	0	0	0	0	0	0	0	0	0	0	0
691	50	0	50	0	1	100	1	50	0	0	0	0	0	0	0	0	0	0	0	0
692	40	0	0	0	1	100	1	40	0	0	0	0	0	0	0	0	0	0	0	0
693	40	0	0	0	1	100	1	40	0	0	0	0	0	0	0	0	0	0	0	0
694	25	0	0	0	1	100	1	25	0	0	0	0	0	0	0	0	0	0	0	0
695	25	0	0	0	1	100	1	25	0	0	0	0	0	0	0	0	0	0	0	0
697	12	0	12	0	1	100	1	12	0	0	0	0	0	0	0	0	0	0	0	0
698	12	0	12	0	1	100	1	12	0	0	0	0	0	0	0	0	0	0	0	0
699	50	0	0	0	1	100	1	50	0	0	0	0	0	0	0	0	0	0	0	0
700	25	0	25	0	1	100	1	25	0	0	0	0	0	0	0	0	0	0	0	0
701	25	0	25	0	1	100	1	25	0	0	0	0	0	0	0	0	0	0	0	0
702	25	0	25	0	1	100	1	25	0	0	0	0	0	0	0	0	0	0	0	0
703	25	0	25	0	1	100	1	25	0	0	0	0	0	0	0	0	0	0	0	0
704	25	0	25	0	1	100	1	25	0	0	0	0	0	0	0	0	0	0	0	0
705	25	0	25	0	1	100	1	25	0	0	0	0	0	0	0	0	0	0	0	0
706	25	0	25	0	1	100	1	25	0	0	0	0	0	0	0	0	0	0	0	0
707	25	0	25	0	1	100	1	25	0	0	0	0	0	0	0	0	0	0	0	0
708	25	0	25	0	1	100	1	25	0	0	0	0	0	0	0	0	0	0	0	0
709	135	0	135	0	1	100	1	135	0	0	0	0	0	0	0	0	0	0	0	0
710	135	0	135	0	1	100	1	135	0	0	0	0	0	0	0	0	0	0	0	0
711	25	0	25	0	1	100	1	25	0	0	0	0	0	0	0	0	0	0	0	0
712	15	0	15	0	1	100	1	15	0	0	0	0	0	0	0	0	0	0	0	0
713	15	0	15	0	1	100	1	15	0	0	0	0	0	0	0	0	0	0	0	0
714	25	0	0	0	1	100	1	25	0	0	0	0	0	0	0	0	0	0	0	0
715	25	0	0	0	1	100	1	25	0	0	0	0	0	0	0	0	0	0	0	0
716	12	0	0	0	1	100	1	12	0	0	0	0	0	0	0	0	0	0	0	0
717	12	0	0	0	1	100	1	12	0	0	0	0	0	0	0	0	0	0	0	0
718	45	0	0	0	1	100	1	45	0	0	0	0	0	0	0	0	0	0	0	0
719	50	0	0	0	1	100	1	50	0	0	0	0	0	0	0	0	0	0	0	0
720	50	0	0	0	1	100	1	50	0	0	0	0	0	0	0	0	0	0	0	0
722	125	0	100	0	1	100	1	125	0	0	0	0	0	0	0	0	0	0	0	0
724	25	0	25	0	1	100	1	25	0	0	0	0	0	0	0	0	0	0	0	0
725	25	0	25	0	1	100	1	25	0	0	0	0	0	0	0	0	0	0	0	0
727	25	0	0	0	1	100	1	25	0	0	0	0	0	0	0	0	0	0	0	0
728	25	0	0	0	1	100	1	25	0	0	0	0	0	0	0	0	0	0	0	0
730	12	0	12	0	1	100	1	12	0	0	0	0	0	0	0	0	0	0	0	0
731	15	0	15	0	1	100	1	15	0	0	0	0	0	0	0	0	0	0	0	0
733	12	0	12	0	1	100	1	12	0	0	0	0	0	0	0	0	0	0	0	0
734	12	0	12	0	1	100	1	12	0	0	0	0	0	0	0	0	0	0	0	0
736	12	0	0	0	1	100	1	12	0	0	0	0	0	0	0	0	0	0	0	0
738	15	0	10	0	1	100	1	15	0	0	0	0	0	0	0	0	0	0	0	0
739	15	0	15	0	1	100	1	15	0	0	0	0	0	0	0	0	0	0	0	0
740	50	0	0	0	1	100	1	50	0	0	0	0	0	0	0	0	0	0	0	0
741	50	0	0	0	1	100	1	50	0	0	0	0	0	0	0	0	0	0	0	0
742	50	0	0	0	1	100	1	50	0	0	0	0	0	0	0	0	0	0	0	0
743	50	0	0	0	1	100	1	50	0	0	0	0	0	0	0	0	0	0	0	0
744	135	0	83	-33	1	100	1	135	0	0	0	0	0	0	0	0	0	0	0	0
745	135	0	83	-33	1	100	1	135	0	0	0	0	0	0	0	0	0	0	0	0
746	135	0	83	-33	1	100	1	135	0	0	0	0	0	0	0	0	0	0	0	0
];

%% branch data
%	fbus	tbus	r	x	b	rateA	rateB	rateC	ratio	angle	status	angmin	angmax
mpc.branch = [
162	1	0	0.0001	0	9999	9999	9999	0	0	1	-360	360
162	2	0	0.0001	0	9999	9999	9999	0	0	1	-360	360
167	3	0	0.0001	0	9999	9999	9999	0	0	1	-360	360
167	4	0	0.0001	0	9999	9999	9999	0	0	1	-360	360
8	9	0	0.0001	0	9999	9999	9999	0	0	1	-360	360
10	474	0.01828	0.1297	0	9999	9999	9999	0	0	1	-360	360
10	474	0.01828	0.1297	0	9999	9999	9999	0	0	1	-360	360
10	474	0.01828	0.1297	0	9999	9999	9999	0	0	1	-360	360
16	523	0.00123	0.00871	0.15546	9999	9999	9999	0	0	1	-360	360
16	523	0.00118	0.00811	0.14998	9999	9999	9999	0	0	1	-360	360
16	22	0.00303	0.01939	0.33656	9999	9999	9999	0	0	1	-360	360
22	475	0.00335	0.02294	0.42722	9999	9999	9999	0	0	1	-360	360
23	24	0.00006	0.00017	0	9999	9999	9999	0	0	1	-360	360
25	26	0.00006	0.00017	0	9999	9999	9999	0	0	1	-360	360
27	28	0.00006	0.00017	0	9999	9999	9999	0	0	1	-360	360
29	528	0.03223	0.12416	0	9999	9999	9999	0	0	1	-360	360
29	528	0.03223	0.12416	0	9999	9999	9999	0	0	1	-360	360
32	194	0.00545	0.02087	0	9999	9999	9999	0	0	1	-360	360
32	194	0.00545	0.02087	0	9999	9999	9999	0	0	1	-360	360
32	194	0.00545	0.02087	0	9999	9999	9999	0	0	1	-360	360
35	243	0.00001	0.00006	0.00116	9999	9999	9999	0	0	1	-360	360
35	243	0.00001	0.00006	0.00106	9999	9999	9999	0	0	1	-360	360
38	274	0.00109	0.00542	0.00084	9999	9999	9999	0	0	1	-360	360
38	274	0.00109	0.00542	0.00084	9999	9999	9999	0	0	1	-360	360
41	249	0.00023	0.00134	0.02504	9999	9999	9999	0	0	1	-360	360
41	249	0.00023	0.00134	0.02504	9999	9999	9999	0	0	1	-360	360
304	44	0.00062	0.0053	0.11578	9999	9999	9999	0	0	1	-360	360
304	44	0.00062	0.0053	0.11578	9999	9999	9999	0	0	1	-360	360
210	49	0.00026	0.00306	0.07456	9999	9999	9999	0	0	1	-360	360
210	49	0.00026	0.00306	0.07456	9999	9999	9999	0	0	1	-360	360
332	52	0.00008	0.00057	0.0143	9999	9999	9999	0	0	1	-360	360
332	52	0.00008	0.00057	0.01452	9999	9999	9999	0	0	1	-360	360
55	56	0	0.0001	0	9999	9999	9999	0	0	1	-360	360
162	57	0	0.0001	0	9999	9999	9999	0	0	1	-360	360
55	58	0	0.0001	0	9999	9999	9999	0	0	1	-360	360
162	59	0	0.0001	0	9999	9999	9999	0	0	1	-360	360
57	56	0.00017	0.00371	2.569	9999	9999	9999	0	0	1	-360	360
59	58	0.00016	0.00372	2.5974	9999	9999	9999	0	0	1	-360	360
62	359	0.00082	0.00494	0.09244	9999	9999	9999	0	0	1	-360	360
62	365	0.00146	0.00872	0.16302	9999	9999	9999	0	0	1	-360	360
65	345	0.00028	0.00209	0.04906	9999	9999	9999	0	0	1	-360	360
65	345	0.00025	0.00146	0.02732	9999	9999	9999	0	0	1	-360	360
70	353	0.00053	0.00317	0.0593	9999	9999	9999	0	0	1	-360	360
70	353	0.00053	0.00317	0.0593	9999	9999	9999	0	0	1	-360	360
70	353	0.00052	0.0031	0.0581	9999	9999	9999	0	0	1	-360	360
167	74	0	0.0001	0	9999	9999	9999	0	0	1	-360	360
73	75	0	0.0001	0	9999	9999	9999	0	0	1	-360	360
74	75	0.00004	0.00079	0.5242	9999	9999	9999	0	0	1	-360	360
77	78	0	0.0001	0	9999	9999	9999	0	0	1	-360	360
172	79	0	0.0001	0	9999	9999	9999	0	0	1	-360	360
79	78	0.00007	0.00143	0.9492	9999	9999	9999	0	0	1	-360	360
80	403	0.00008	0.00049	0.0091	9999	9999	9999	0	0	1	-360	360
80	435	0.00094	0.0056	0.10474	9999	9999	9999	0	0	1	-360	360
397	86	0.00085	0.00503	0.09406	9999	9999	9999	0	0	1	-360	360
397	86	0.00073	0.00488	0.09518	9999	9999	9999	0	0	1	-360	360
397	86	0.00092	0.00567	0.10246	9999	9999	9999	0	0	1	-360	360
89	431	0.00319	0.019	0.3552	9999	9999	9999	0	0	1	-360	360
89	431	0.00319	0.019	0.3552	9999	9999	9999	0	0	1	-360	360
89	427	0.00076	0.00487	0.09108	9999	9999	9999	0	0	1	-360	360
173	92	0.00525	0.0368	0.67066	9999	9999	9999	0	0	1	-360	360
173	92	0.00523	0.03692	0.67066	9999	9999	9999	0	0	1	-360	360
92	409	0.00064	0.00358	0.06904	9999	9999	9999	0	0	1	-360	360
92	409	0.00064	0.00378	0.07068	9999	9999	9999	0	0	1	-360	360
173	95	0.00257	0.03587	0.73316	9999	9999	9999	0	0	1	-360	360
173	95	0.00257	0.03587	0.73316	9999	9999	9999	0	0	1	-360	360
415	95	0.00009	0.00064	0.00652	9999	9999	9999	0	0	1	-360	360
415	95	0.00009	0.00061	0.00814	9999	9999	9999	0	0	1	-360	360
97	227	0.0009	0.00535	0.10018	9999	9999	9999	0	0	1	-360	360
97	227	0.0009	0.00535	0.10018	9999	9999	9999	0	0	1	-360	360
100	324	0.00047	0.00631	0.14318	9999	9999	9999	0	0	1	-360	360
100	324	0.0005	0.00633	0.14282	9999	9999	9999	0	0	1	-360	360
103	481	0.00016	0.00097	0.01822	9999	9999	9999	0	0	1	-360	360
103	481	0.00016	0.00097	0.01822	9999	9999	9999	0	0	1	-360	360
106	535	0.0018	0.01072	0.20038	9999	9999	9999	0	0	1	-360	360
106	535	0.0018	0.01072	0.20038	9999	9999	9999	0	0	1	-360	360
108	549	0.00125	0.00609	0.11384	9999	9999	9999	0	0	1	-360	360
108	543	0.00131	0.00779	0.14572	9999	9999	9999	0	0	1	-360	360
593	111	0.00052	0.00312	0.05836	9999	9999	9999	0	0	1	-360	360
593	111	0.00052	0.00312	0.05836	9999	9999	9999	0	0	1	-360	360
585	114	0.00013	0.00095	0.03372	9999	9999	9999	0	0	1	-360	360
585	114	0.00012	0.00095	0.03308	9999	9999	9999	0	0	1	-360	360
117	566	0.00258	0.00923	0	9999	9999	9999	0	0	1	-360	360
117	566	0.00258	0.00923	0	9999	9999	9999	0	0	1	-360	360
120	572	0.01315	0.04696	0	9999	9999	9999	0	0	1	-360	360
120	572	0.01315	0.04696	0	9999	9999	9999	0	0	1	-360	360
123	124	0	0.0001	0	9999	9999	9999	0	0	1	-360	360
181	125	0	0.0001	0	9999	9999	9999	0	0	1	-360	360
181	124	0.00004	0.00085	0.5666	9999	9999	9999	0	0	1	-360	360
128	129	0	0.0001	0	9999	9999	9999	0	0	1	-360	360
129	181	0.00033	0.00681	2.065	9999	9999	9999	0	0	1	-360	360
132	598	0.00255	0.02261	0	9999	9999	9999	0	0	1	-360	360
132	598	0.00255	0.02261	0	9999	9999	9999	0	0	1	-360	360
135	616	0.00255	0.02261	0	9999	9999	9999	0	0	1	-360	360
135	616	0.00255	0.02261	0	9999	9999	9999	0	0	1	-360	360
138	632	0.00255	0.02261	0	9999	9999	9999	0	0	1	-360	360
138	632	0.00255	0.02261	0	9999	9999	9999	0	0	1	-360	360
141	638	0.00255	0.02261	0	9999	9999	9999	0	0	1	-360	360
141	638	0.00255	0.02261	0	9999	9999	9999	0	0	1	-360	360
144	643	0.00255	0.02261	0	9999	9999	9999	0	0	1	-360	360
144	643	0.00255	0.02261	0	9999	9999	9999	0	0	1	-360	360
151	626	0.00255	0.02261	0	9999	9999	9999	0	0	1	-360	360
151	626	0.00255	0.02261	0	9999	9999	9999	0	0	1	-360	360
153	182	0.00171	0.01095	0.2049	9999	9999	9999	0	0	1	-360	360
154	168	0	0.0001	0	9999	9999	9999	0	0	1	-360	360
173	155	0.00455	0.02923	0.54644	9999	9999	9999	0	0	1	-360	360
173	155	0.00455	0.02923	0.54644	9999	9999	9999	0	0	1	-360	360
403	155	0.00342	0.02192	0.40982	9999	9999	9999	0	0	1	-360	360
639	642	0.00076	0.00487	0.09108	9999	9999	9999	0	0	1	-360	360
167	646	0	0.0001	0	9999	9999	9999	0	0	1	-360	360
162	647	0	0.0001	0	9999	9999	9999	0	0	1	-360	360
167	648	0	0.0001	0	9999	9999	9999	0	0	1	-360	360
162	649	0	0.0001	0	9999	9999	9999	0	0	1	-360	360
647	646	0.00019	0.00405	2.6916	9999	9999	9999	0	0	1	-360	360
649	648	0.00019	0.00405	2.6916	9999	9999	9999	0	0	1	-360	360
162	650	0	0.0001	0	9999	9999	9999	0	0	1	-360	360
172	651	0	0.0001	0	9999	9999	9999	0	0	1	-360	360
162	652	0	0.0001	0	9999	9999	9999	0	0	1	-360	360
172	653	0	0.0001	0	9999	9999	9999	0	0	1	-360	360
650	651	0.00031	0.00569	4.0042	9999	9999	9999	0	0	1	-360	360
652	653	0.0003	0.00569	4.0042	9999	9999	9999	0	0	1	-360	360
156	654	0	0.0001	0	9999	9999	9999	0	0	1	-360	360
167	655	0	0.0001	0	9999	9999	9999	0	0	1	-360	360
156	656	0	0.0001	0	9999	9999	9999	0	0	1	-360	360
167	657	0	0.0001	0	9999	9999	9999	0	0	1	-360	360
655	654	0.00035	0.0075	4.954	9999	9999	9999	0	0	1	-360	360
657	656	0.00035	0.0075	4.954	9999	9999	9999	0	0	1	-360	360
156	658	0	0.0001	0	9999	9999	9999	0	0	1	-360	360
172	659	0	0.0001	0	9999	9999	9999	0	0	1	-360	360
156	660	0	0.0001	0	9999	9999	9999	0	0	1	-360	360
172	661	0	0.0001	0	9999	9999	9999	0	0	1	-360	360
658	659	0.00028	0.00584	3.8562	9999	9999	9999	0	0	1	-360	360
660	661	0.00028	0.00584	3.8562	9999	9999	9999	0	0	1	-360	360
177	662	0	0.0001	0	9999	9999	9999	0	0	1	-360	360
172	663	0	0.0001	0	9999	9999	9999	0	0	1	-360	360
177	664	0	0.0001	0	9999	9999	9999	0	0	1	-360	360
172	665	0	0.0001	0	9999	9999	9999	0	0	1	-360	360
663	662	0.0003	0.00623	4.3104	9999	9999	9999	0	0	1	-360	360
665	664	0.0003	0.00623	4.2914	9999	9999	9999	0	0	1	-360	360
177	666	0	0.0001	0	9999	9999	9999	0	0	1	-360	360
181	667	0	0.0001	0	9999	9999	9999	0	0	1	-360	360
177	668	0	0.0001	0	9999	9999	9999	0	0	1	-360	360
181	669	0	0.0001	0	9999	9999	9999	0	0	1	-360	360
667	666	0.00049	0.01151	7.8158	9999	9999	9999	0	0	1	-360	360
669	668	0.00049	0.01151	7.8158	9999	9999	9999	0	0	1	-360	360
461	369	0.00733	0.0436	0.81514	9999	9999	9999	0	0	1	-360	360
461	369	0.00733	0.0436	0.81514	9999	9999	9999	0	0	1	-360	360
461	369	0.00733	0.0436	0.81514	9999	9999	9999	0	0	1	-360	360
497	523	0.0044	0.02837	0.51268	9999	9999	9999	0	0	1	-360	360
497	523	0.0044	0.02837	0.51268	9999	9999	9999	0	0	1	-360	360
375	353	0.00248	0.01476	0.27596	9999	9999	9999	0	0	1	-360	360
375	345	0.00164	0.00976	0.1826	9999	9999	9999	0	0	1	-360	360
345	365	0.00277	0.01651	0.30864	9999	9999	9999	0	0	1	-360	360
345	353	0.00133	0.00794	0.14844	9999	9999	9999	0	0	1	-360	360
210	281	0.00027	0.00165	0.03092	9999	9999	9999	0	0	1	-360	360
210	281	0.00031	0.00182	0.03406	9999	9999	9999	0	0	1	-360	360
324	227	0.00039	0.005	0.15926	9999	9999	9999	0	0	1	-360	360
535	447	0.00358	0.02574	0.44744	9999	9999	9999	0	0	1	-360	360
535	441	0.00239	0.01425	0.26638	9999	9999	9999	0	0	1	-360	360
535	555	0.00131	0.00779	0.14572	9999	9999	9999	0	0	1	-360	360
535	555	0.00131	0.00779	0.14572	9999	9999	9999	0	0	1	-360	360
543	599	0.00506	0.03268	0.6209	9999	9999	9999	0	0	1	-360	360
599	182	0.00375	0.02228	0.41666	9999	9999	9999	0	0	1	-360	360
549	579	0.00355	0.02796	0.56208	9999	9999	9999	0	0	1	-360	360
299	210	0.00008	0.00047	0.00876	9999	9999	9999	0	0	1	-360	360
299	210	0.00008	0.00047	0.00876	9999	9999	9999	0	0	1	-360	360
304	210	0.00056	0.00327	0.07582	9999	9999	9999	0	0	1	-360	360
304	210	0.00056	0.00327	0.07582	9999	9999	9999	0	0	1	-360	360
203	281	0.00027	0.00165	0.03096	9999	9999	9999	0	0	1	-360	360
203	281	0.00031	0.00182	0.03406	9999	9999	9999	0	0	1	-360	360
203	227	0.0013	0.00876	0.15916	9999	9999	9999	0	0	1	-360	360
203	227	0.0013	0.00876	0.15916	9999	9999	9999	0	0	1	-360	360
227	431	0.00225	0.01339	0.25046	9999	9999	9999	0	0	1	-360	360
227	431	0.00225	0.01339	0.25046	9999	9999	9999	0	0	1	-360	360
227	427	0.00226	0.01705	0.31876	9999	9999	9999	0	0	1	-360	360
300	249	0.00038	0.00244	0.04554	9999	9999	9999	0	0	1	-360	360
300	249	0.00038	0.00244	0.04554	9999	9999	9999	0	0	1	-360	360
275	219	0.00021	0.0013	0.02436	9999	9999	9999	0	0	1	-360	360
275	219	0.00021	0.0013	0.02436	9999	9999	9999	0	0	1	-360	360
190	263	0.00054	0.00487	0.10334	9999	9999	9999	0	0	1	-360	360
263	219	0.00028	0.00332	0.0742	9999	9999	9999	0	0	1	-360	360
190	219	0.00049	0.0029	0.04422	9999	9999	9999	0	0	1	-360	360
157	269	0.0003	0.00434	0.1	9999	9999	9999	0	0	1	-360	360
157	269	0.0003	0.00434	0.1	9999	9999	9999	0	0	1	-360	360
157	249	0.00017	0.00247	0.05702	9999	9999	9999	0	0	1	-360	360
157	249	0.00017	0.00247	0.05702	9999	9999	9999	0	0	1	-360	360
219	249	0.00093	0.00553	0.08432	9999	9999	9999	0	0	1	-360	360
219	249	0.00093	0.00553	0.08432	9999	9999	9999	0	0	1	-360	360
263	157	0.00014	0.00199	0.04596	9999	9999	9999	0	0	1	-360	360
263	157	0.00014	0.00199	0.04596	9999	9999	9999	0	0	1	-360	360
269	497	0.00402	0.02394	0.44764	9999	9999	9999	0	0	1	-360	360
269	497	0.00402	0.02394	0.44764	9999	9999	9999	0	0	1	-360	360
190	235	0.00036	0.00194	0.04716	9999	9999	9999	0	0	1	-360	360
190	235	0.00036	0.00194	0.04716	9999	9999	9999	0	0	1	-360	360
190	286	0.00024	0.00058	0.58918	9999	9999	9999	0	0	1	-360	360
235	292	0.0004	0.00153	0.6068	9999	9999	9999	0	0	1	-360	360
235	269	0.00029	0.00421	0.09696	9999	9999	9999	0	0	1	-360	360
235	269	0.00029	0.00421	0.09696	9999	9999	9999	0	0	1	-360	360
235	173	0.00134	0.01796	0.57282	9999	9999	9999	0	0	1	-360	360
235	173	0.00134	0.01796	0.57282	9999	9999	9999	0	0	1	-360	360
195	243	0.00025	0.00152	0.03778	9999	9999	9999	0	0	1	-360	360
...
];

%% loads data
% bus_i Pd  Qd
mpc.loads=[
1	-711	-412
2	-711	-412
3	-787	-460
4	-787	-460
10	70	35
12	194	93
154	3000	4578
155	1110	1802
189	441	213
194	713	344
202	475	229
211	764	368
218	765	364
226	498	240
234	659	320
242	334	161
248	355	171
255	235	114
262	485	234
268	306	148
274	414	200
280	320	154
287	170	80
293	170	80
298	40	13
299	40	13
300	40	13
303	441	213
311	280	135
317	250	120
323	443	214
331	233	113
337	336	162
341	30	6
344	335	162
352	253	122
358	297	143
364	165	79
368	394	190
374	116	56
378	30	7.3
379	36	7.3
382	397	192
390	262	126
396	426	206
402	223	107
408	297	143
414	300	145
420	184	89
426	126	11
430	181	87
434	40	13
435	40	13
436	40	13
437	40	13
440	83	40
446	220	106
452	197	95
460	413	199
468	434	209
474	372	179
480	173	84
486	174	84
492	194	93
496	145	70
502	308	149
510	290	140
516	202	97
522	426	205
528	231	111
534	305	147
542	286	138
548	274	132
554	234	113
560	247	119
566	1114	537
572	1709	824
578	373	180
584	201	97
592	268	129
598	247	119
604	305	147
610	288	139
616	19	9
622	155	75
];